REMARK SMILES CN(CCn1ccc2ncnc(Nc3ccc(Oc4cccc(C(F)(F)F)c4)c(Cl)c3)c21)C(=O)CO
REMARK SMILES IDX 5 1 6 2 7 3 8 4 9 5 10 6 11 7 12 8 32 9 4 10 3 11 2 12 1 13
REMARK SMILES IDX 33 14 34 15 35 16 36 17 13 19 14 21 15 22 31 23 16 24 29 25
REMARK SMILES IDX 17 26 30 27 18 28 19 29 20 30 28 31 21 32 23 33 22 34 24 35
REMARK SMILES IDX 25 36 26 37 27 38
REMARK H PARENT 36 18 13 20
ROOT
ATOM      1  N   UNL     1      -3.506   0.912   1.496  1.00  0.00    -0.341 N 
ATOM      2  C   UNL     1      -4.723   1.070   2.120  1.00  0.00     0.088 A 
ATOM      3  C   UNL     1      -4.832   0.109   3.094  1.00  0.00     0.048 A 
ATOM      4  C   UNL     1      -3.644  -0.652   3.061  1.00  0.00     0.094 A 
ATOM      5  N   UNL     1      -3.318  -1.689   3.855  1.00  0.00    -0.235 NA
ATOM      6  C   UNL     1      -2.123  -2.206   3.581  1.00  0.00     0.225 A 
ATOM      7  N   UNL     1      -1.263  -1.812   2.630  1.00  0.00    -0.217 NA
ATOM      8  C   UNL     1      -1.580  -0.780   1.811  1.00  0.00     0.158 A 
ATOM      9  C   UNL     1      -2.822  -0.161   2.043  1.00  0.00     0.110 A 
ENDROOT
BRANCH   1  10
ATOM     10  C   UNL     1      -3.049   1.831   0.465  1.00  0.00     0.144 C 
BRANCH  10  11
ATOM     11  C   UNL     1      -3.410   1.376  -0.956  1.00  0.00     0.141 C 
BRANCH  11  12
ATOM     12  N   UNL     1      -4.836   1.504  -1.285  1.00  0.00    -0.342 N 
ATOM     13  C   UNL     1      -5.354   2.854  -1.474  1.00  0.00     0.146 C 
BRANCH  12  14
ATOM     14  C   UNL     1      -5.737   0.445  -1.350  1.00  0.00     0.248 C 
ATOM     15  O   UNL     1      -6.950   0.616  -1.503  1.00  0.00    -0.272 OA
BRANCH  14  16
ATOM     16  C   UNL     1      -5.199  -0.987  -1.232  1.00  0.00     0.256 C 
BRANCH  16  17
ATOM     17  O   UNL     1      -6.211  -1.955  -1.475  1.00  0.00    -0.387 OA
ATOM     18  H   UNL     1      -7.062  -1.479  -1.383  1.00  0.00     0.211 HD
ENDBRANCH  16  17
ENDBRANCH  14  16
ENDBRANCH  12  14
ENDBRANCH  11  12
ENDBRANCH  10  11
ENDBRANCH   1  10
BRANCH   8  19
ATOM     19  N   UNL     1      -0.712  -0.420   0.771  1.00  0.00    -0.338 N 
ATOM     20  H   UNL     1      -1.128   0.148   0.058  1.00  0.00     0.168 HD
BRANCH  19  21
ATOM     21  C   UNL     1       0.625  -0.773   0.501  1.00  0.00     0.041 A 
ATOM     22  C   UNL     1       1.459  -1.418   1.422  1.00  0.00     0.030 A 
ATOM     23  C   UNL     1       1.152  -0.482  -0.769  1.00  0.00     0.050 A 
ATOM     24  C   UNL     1       2.778  -1.753   1.097  1.00  0.00     0.051 A 
ATOM     25  C   UNL     1       2.471  -0.812  -1.102  1.00  0.00     0.085 A 
ATOM     26  C   UNL     1       3.291  -1.428  -0.157  1.00  0.00     0.146 A 
ATOM     27  Cl  UNL     1       3.024  -0.452  -2.697  1.00  0.00    -0.080 Cl
BRANCH  26  28
ATOM     28  O   UNL     1       4.581  -1.806  -0.435  1.00  0.00    -0.456 OA
BRANCH  28  29
ATOM     29  C   UNL     1       5.549  -0.824  -0.429  1.00  0.00     0.128 A 
ATOM     30  C   UNL     1       5.480   0.360   0.309  1.00  0.00     0.047 A 
ATOM     31  C   UNL     1       6.681  -1.093  -1.204  1.00  0.00     0.060 A 
ATOM     32  C   UNL     1       6.528   1.280   0.251  1.00  0.00     0.004 A 
ATOM     33  C   UNL     1       7.744  -0.178  -1.264  1.00  0.00     0.059 A 
ATOM     34  C   UNL     1       7.651   1.016  -0.535  1.00  0.00     0.013 A 
BRANCH  33  35
ATOM     35  C   UNL     1       8.947  -0.460  -2.129  1.00  0.00     0.416 C 
ATOM     36  F   UNL     1      10.089   0.116  -1.659  1.00  0.00    -0.166 F 
ATOM     37  F   UNL     1       8.791   0.003  -3.400  1.00  0.00    -0.166 F 
ATOM     38  F   UNL     1       9.224  -1.789  -2.245  1.00  0.00    -0.166 F 
ENDBRANCH  33  35
ENDBRANCH  28  29
ENDBRANCH  26  28
ENDBRANCH  19  21
ENDBRANCH   8  19
TORSDOF 11
