REMARK SMILES OCCOCCn1ccc2ncnc(Nc3ccc(Oc4cccc(OC(F)(F)F)c4)c(Cl)c3)c21
REMARK SMILES IDX 7 1 8 2 9 3 10 4 11 5 12 6 13 7 14 8 35 9 6 10 5 11 4 12
REMARK SMILES IDX 3 13 2 14 1 15 15 17 16 19 17 20 34 21 18 22 32 23 19 24
REMARK SMILES IDX 33 25 20 26 21 27 22 28 31 29 23 30 25 31 24 32 26 33 27 34
REMARK SMILES IDX 28 35 29 36 30 37
REMARK H PARENT 1 16 15 18
ROOT
ATOM      1  N   UNL     1      -4.229  -1.484  -1.773  1.00  0.00    -0.341 N 
ATOM      2  C   UNL     1      -5.300  -2.284  -2.111  1.00  0.00     0.088 A 
ATOM      3  C   UNL     1      -5.082  -3.532  -1.578  1.00  0.00     0.048 A 
ATOM      4  C   UNL     1      -3.848  -3.484  -0.893  1.00  0.00     0.094 A 
ATOM      5  N   UNL     1      -3.230  -4.489  -0.242  1.00  0.00    -0.235 NA
ATOM      6  C   UNL     1      -2.065  -4.125   0.295  1.00  0.00     0.225 A 
ATOM      7  N   UNL     1      -1.495  -2.910   0.272  1.00  0.00    -0.217 NA
ATOM      8  C   UNL     1      -2.122  -1.883  -0.350  1.00  0.00     0.158 A 
ATOM      9  C   UNL     1      -3.337  -2.190  -0.985  1.00  0.00     0.110 A 
ENDROOT
BRANCH   1  10
ATOM     10  C   UNL     1      -4.082  -0.127  -2.290  1.00  0.00     0.150 C 
BRANCH  10  11
ATOM     11  C   UNL     1      -4.682   0.914  -1.350  1.00  0.00     0.182 C 
BRANCH  11  12
ATOM     12  O   UNL     1      -3.784   1.148  -0.258  1.00  0.00    -0.377 OA
BRANCH  12  13
ATOM     13  C   UNL     1      -4.407   1.927   0.767  1.00  0.00     0.188 C 
BRANCH  13  14
ATOM     14  C   UNL     1      -3.413   2.198   1.892  1.00  0.00     0.184 C 
BRANCH  14  15
ATOM     15  O   UNL     1      -4.046   2.886   2.962  1.00  0.00    -0.394 OA
ATOM     16  H   UNL     1      -4.548   2.228   3.474  1.00  0.00     0.210 HD
ENDBRANCH  14  15
ENDBRANCH  13  14
ENDBRANCH  12  13
ENDBRANCH  11  12
ENDBRANCH  10  11
ENDBRANCH   1  10
BRANCH   8  17
ATOM     17  N   UNL     1      -1.592  -0.588  -0.309  1.00  0.00    -0.338 N 
ATOM     18  H   UNL     1      -2.305   0.130  -0.416  1.00  0.00     0.168 HD
BRANCH  17  19
ATOM     19  C   UNL     1      -0.321  -0.094   0.030  1.00  0.00     0.041 A 
ATOM     20  C   UNL     1       0.781  -0.908   0.313  1.00  0.00     0.030 A 
ATOM     21  C   UNL     1      -0.124   1.297   0.039  1.00  0.00     0.050 A 
ATOM     22  C   UNL     1       2.032  -0.360   0.621  1.00  0.00     0.051 A 
ATOM     23  C   UNL     1       1.122   1.853   0.344  1.00  0.00     0.085 A 
ATOM     24  C   UNL     1       2.209   1.024   0.621  1.00  0.00     0.146 A 
ATOM     25  Cl  UNL     1       1.278   3.573   0.343  1.00  0.00    -0.080 Cl
BRANCH  24  26
ATOM     26  O   UNL     1       3.419   1.587   0.958  1.00  0.00    -0.456 OA
BRANCH  26  27
ATOM     27  C   UNL     1       4.525   1.166   0.252  1.00  0.00     0.131 A 
ATOM     28  C   UNL     1       4.536   1.058  -1.139  1.00  0.00     0.047 A 
ATOM     29  C   UNL     1       5.684   0.914   0.995  1.00  0.00     0.093 A 
ATOM     30  C   UNL     1       5.702   0.658  -1.788  1.00  0.00     0.008 A 
ATOM     31  C   UNL     1       6.853   0.512   0.349  1.00  0.00     0.133 A 
ATOM     32  C   UNL     1       6.851   0.384  -1.045  1.00  0.00     0.047 A 
BRANCH  31  33
ATOM     33  O   UNL     1       8.050   0.221   0.939  1.00  0.00    -0.406 OA
BRANCH  33  34
ATOM     34  C   UNL     1       8.131   0.313   2.351  1.00  0.00     0.573 C 
ATOM     35  F   UNL     1       7.267  -0.537   2.945  1.00  0.00    -0.132 F 
ATOM     36  F   UNL     1       7.890   1.572   2.772  1.00  0.00    -0.132 F 
ATOM     37  F   UNL     1       9.382  -0.025   2.735  1.00  0.00    -0.132 F 
ENDBRANCH  33  34
ENDBRANCH  31  33
ENDBRANCH  26  27
ENDBRANCH  24  26
ENDBRANCH  17  19
ENDBRANCH   8  17
TORSDOF 12
