REMARK SMILES Clc1cccc(Oc2ccc(Nc3ncnc4cc[nH]c34)cc2Cl)c1
REMARK SMILES IDX 8 1 9 2 10 3 11 4 22 5 23 6 24 7 7 8 6 9 2 10 3 11 25 12
REMARK SMILES IDX 4 13 5 14 1 15 12 16 13 18 14 19 21 20 15 21 20 22 17 23
REMARK SMILES IDX 16 24 19 25 18 26
REMARK H PARENT 12 17 20 27
ROOT
ATOM      1  C   UNL     1       1.618   1.495  -0.799  1.00  0.00     0.146 A 
ATOM      2  C   UNL     1       1.074   1.142   0.439  1.00  0.00     0.051 A 
ATOM      3  C   UNL     1      -0.309   1.204   0.635  1.00  0.00     0.030 A 
ATOM      4  C   UNL     1      -1.166   1.630  -0.387  1.00  0.00     0.041 A 
ATOM      5  C   UNL     1      -0.603   2.005  -1.615  1.00  0.00     0.050 A 
ATOM      6  C   UNL     1       0.779   1.946  -1.819  1.00  0.00     0.085 A 
ATOM      7  Cl  UNL     1       1.407   2.414  -3.357  1.00  0.00    -0.080 Cl
ENDROOT
BRANCH   1   8
ATOM      8  O   UNL     1       2.981   1.478  -0.998  1.00  0.00    -0.456 OA
BRANCH   8   9
ATOM      9  C   UNL     1       3.622   0.281  -0.770  1.00  0.00     0.128 A 
ATOM     10  C   UNL     1       5.487  -0.858   0.237  1.00  0.00     0.044 A 
ATOM     11  C   UNL     1       5.046  -2.068  -0.302  1.00  0.00     0.021 A 
ATOM     12  C   UNL     1       4.784   0.320  -0.000  1.00  0.00     0.067 A 
ATOM     13  C   UNL     1       3.897  -2.099  -1.093  1.00  0.00     0.005 A 
ATOM     14  C   UNL     1       3.186  -0.922  -1.334  1.00  0.00     0.047 A 
ATOM     15  Cl  UNL     1       6.911  -0.823   1.201  1.00  0.00    -0.084 Cl
ENDBRANCH   8   9
ENDBRANCH   1   8
BRANCH   4  16
ATOM     16  N   UNL     1      -2.557   1.673  -0.239  1.00  0.00    -0.338 N 
ATOM     17  H   UNL     1      -3.016   2.483  -0.641  1.00  0.00     0.168 HD
BRANCH  16  18
ATOM     18  C   UNL     1      -3.444   0.979   0.583  1.00  0.00     0.158 A 
ATOM     19  N   UNL     1      -4.595   1.607   0.913  1.00  0.00    -0.217 NA
ATOM     20  C   UNL     1      -3.291  -0.326   1.040  1.00  0.00     0.108 A 
ATOM     21  C   UNL     1      -5.473   0.973   1.714  1.00  0.00     0.225 A 
ATOM     22  N   UNL     1      -2.336  -1.289   0.816  1.00  0.00    -0.357 N 
ATOM     23  C   UNL     1      -4.256  -0.902   1.854  1.00  0.00     0.094 A 
ATOM     24  N   UNL     1      -5.378  -0.257   2.233  1.00  0.00    -0.235 NA
ATOM     25  C   UNL     1      -2.641  -2.431   1.512  1.00  0.00     0.085 A 
ATOM     26  C   UNL     1      -3.835  -2.217   2.165  1.00  0.00     0.048 A 
ATOM     27  H   UNL     1      -1.531  -1.165   0.215  1.00  0.00     0.166 HD
ENDBRANCH  16  18
ENDBRANCH   4  16
TORSDOF 4
