REMARK SMILES OCCNCCn1ccc2ncnc(Nc3ccc(Oc4cccc(C(F)(F)F)c4)c(Cl)c3)c21
REMARK SMILES IDX 7 1 8 2 9 3 10 4 11 5 12 6 13 7 14 8 34 9 6 10 5 11 4 12
REMARK SMILES IDX 3 14 2 15 1 16 15 18 16 20 17 21 33 22 18 23 31 24 19 25
REMARK SMILES IDX 32 26 20 27 21 28 22 29 30 30 23 31 25 32 24 33 26 34 27 35
REMARK SMILES IDX 28 36 29 37
REMARK H PARENT 4 13 1 17 15 19
ROOT
ATOM      1  N   UNL     1      -3.028  -0.980  -1.860  1.00  0.00    -0.342 N 
ATOM      2  C   UNL     1      -3.793  -1.077  -3.003  1.00  0.00     0.088 A 
ATOM      3  C   UNL     1      -4.056  -2.407  -3.230  1.00  0.00     0.048 A 
ATOM      4  C   UNL     1      -3.418  -3.138  -2.205  1.00  0.00     0.094 A 
ATOM      5  N   UNL     1      -3.447  -4.470  -2.001  1.00  0.00    -0.235 NA
ATOM      6  C   UNL     1      -2.775  -4.850  -0.913  1.00  0.00     0.225 A 
ATOM      7  N   UNL     1      -2.070  -4.077  -0.073  1.00  0.00    -0.217 NA
ATOM      8  C   UNL     1      -1.970  -2.753  -0.326  1.00  0.00     0.158 A 
ATOM      9  C   UNL     1      -2.720  -2.245  -1.392  1.00  0.00     0.110 A 
ENDROOT
BRANCH   1  10
ATOM     10  C   UNL     1      -2.714   0.300  -1.243  1.00  0.00     0.137 C 
BRANCH  10  11
ATOM     11  C   UNL     1      -3.485   0.544   0.061  1.00  0.00     0.103 C 
BRANCH  11  12
ATOM     12  N   UNL     1      -3.121   1.845   0.643  1.00  0.00    -0.313 NA
ATOM     13  H   UNL     1      -2.111   1.865   0.799  1.00  0.00     0.122 HD
BRANCH  12  14
ATOM     14  C   UNL     1      -3.778   2.076   1.937  1.00  0.00     0.109 C 
BRANCH  14  15
ATOM     15  C   UNL     1      -5.280   2.368   1.844  1.00  0.00     0.171 C 
BRANCH  15  16
ATOM     16  O   UNL     1      -5.789   2.645   3.146  1.00  0.00    -0.395 OA
ATOM     17  H   UNL     1      -6.728   2.872   3.038  1.00  0.00     0.210 HD
ENDBRANCH  15  16
ENDBRANCH  14  15
ENDBRANCH  12  14
ENDBRANCH  11  12
ENDBRANCH  10  11
ENDBRANCH   1  10
BRANCH   8  18
ATOM     18  N   UNL     1      -1.154  -2.028   0.544  1.00  0.00    -0.338 N 
ATOM     19  H   UNL     1      -1.061  -2.544   1.415  1.00  0.00     0.168 HD
BRANCH  18  20
ATOM     20  C   UNL     1      -0.033  -1.225   0.266  1.00  0.00     0.041 A 
ATOM     21  C   UNL     1       0.573  -1.184  -0.998  1.00  0.00     0.030 A 
ATOM     22  C   UNL     1       0.474  -0.402   1.281  1.00  0.00     0.050 A 
ATOM     23  C   UNL     1       1.667  -0.349  -1.240  1.00  0.00     0.051 A 
ATOM     24  C   UNL     1       1.566   0.438   1.045  1.00  0.00     0.085 A 
ATOM     25  C   UNL     1       2.177   0.444  -0.212  1.00  0.00     0.146 A 
ATOM     26  Cl  UNL     1       2.103   1.463   2.324  1.00  0.00    -0.080 Cl
BRANCH  25  27
ATOM     27  O   UNL     1       3.230   1.273  -0.511  1.00  0.00    -0.456 OA
BRANCH  27  28
ATOM     28  C   UNL     1       4.485   0.898  -0.079  1.00  0.00     0.128 A 
ATOM     29  C   UNL     1       4.870  -0.409   0.228  1.00  0.00     0.047 A 
ATOM     30  C   UNL     1       5.417   1.935   0.014  1.00  0.00     0.060 A 
ATOM     31  C   UNL     1       6.176  -0.671   0.646  1.00  0.00     0.004 A 
ATOM     32  C   UNL     1       6.736   1.682   0.425  1.00  0.00     0.059 A 
ATOM     33  C   UNL     1       7.102   0.368   0.750  1.00  0.00     0.013 A 
BRANCH  32  34
ATOM     34  C   UNL     1       7.726   2.812   0.553  1.00  0.00     0.416 C 
ATOM     35  F   UNL     1       7.510   3.816  -0.342  1.00  0.00    -0.166 F 
ATOM     36  F   UNL     1       7.694   3.393   1.784  1.00  0.00    -0.166 F 
ATOM     37  F   UNL     1       9.016   2.416   0.360  1.00  0.00    -0.166 F 
ENDBRANCH  32  34
ENDBRANCH  27  28
ENDBRANCH  25  27
ENDBRANCH  18  20
ENDBRANCH   8  18
TORSDOF 11
